Version 4
SHEET 1 3588 1876
WIRE -624 -144 -656 -144
WIRE -352 -144 -384 -144
WIRE -656 -128 -656 -144
WIRE -384 -128 -384 -144
WIRE 128 -64 -16 -64
WIRE 320 -64 192 -64
WIRE -656 -32 -656 -48
WIRE -384 -32 -384 -48
WIRE -352 112 -400 112
WIRE -272 112 -352 112
WIRE -192 112 -272 112
WIRE -96 112 -192 112
WIRE -16 112 -16 -64
WIRE -16 112 -96 112
WIRE 32 112 -16 112
WIRE 320 112 320 -64
WIRE 320 112 288 112
WIRE 416 112 320 112
WIRE 496 112 416 112
WIRE 576 112 496 112
WIRE 656 112 576 112
WIRE 752 112 656 112
WIRE 896 112 752 112
WIRE 1056 112 976 112
WIRE -352 128 -352 112
WIRE -272 128 -272 112
WIRE -192 128 -192 112
WIRE -96 128 -96 112
WIRE -16 128 -16 112
WIRE 320 128 320 112
WIRE 416 128 416 112
WIRE 496 128 496 112
WIRE 576 128 576 112
WIRE 656 128 656 112
WIRE 1056 144 1056 112
WIRE -352 208 -352 192
WIRE -272 208 -272 192
WIRE -272 208 -352 208
WIRE -192 208 -192 192
WIRE -192 208 -272 208
WIRE -96 208 -96 192
WIRE -96 208 -192 208
WIRE -16 208 -16 192
WIRE -16 208 -96 208
WIRE 320 208 320 192
WIRE 416 208 416 192
WIRE 416 208 320 208
WIRE 496 208 496 192
WIRE 496 208 416 208
WIRE 576 208 576 192
WIRE 576 208 496 208
WIRE 656 208 656 192
WIRE 656 208 576 208
WIRE -192 224 -192 208
WIRE 496 224 496 208
WIRE -432 288 -656 288
WIRE -576 336 -592 336
WIRE -592 352 -592 336
WIRE -656 368 -656 288
WIRE -624 368 -656 368
WIRE -432 384 -432 288
WIRE -432 384 -560 384
WIRE -368 384 -432 384
WIRE -304 384 -368 384
WIRE -288 384 -304 384
WIRE -224 384 -288 384
WIRE -144 384 -224 384
WIRE -624 400 -656 400
WIRE -368 400 -368 384
WIRE -304 400 -304 384
WIRE -224 400 -224 384
WIRE 48 400 -80 400
WIRE 160 400 160 208
WIRE 160 400 48 400
WIRE -656 416 -656 400
WIRE -144 416 -160 416
WIRE 48 432 48 400
WIRE 160 432 160 400
WIRE -592 448 -592 416
WIRE -576 448 -592 448
WIRE -112 464 -112 432
WIRE -96 464 -112 464
WIRE -368 480 -368 464
WIRE -304 480 -304 464
WIRE -304 480 -368 480
WIRE -224 480 -224 464
WIRE -224 480 -304 480
WIRE -304 496 -304 480
WIRE -656 512 -656 496
WIRE 160 512 160 496
WIRE -160 544 -160 416
WIRE -64 544 -160 544
WIRE 48 544 48 512
WIRE 48 544 -64 544
WIRE 48 576 48 544
WIRE 48 672 48 656
FLAG 1056 144 0
FLAG -192 224 0
FLAG -656 -32 0
FLAG -624 -144 V_SUPPLY
FLAG -400 112 V_SUPPLY
FLAG 496 224 0
FLAG 752 112 V_OUT
FLAG -576 336 V_SUPPLY
FLAG 160 512 0
FLAG 48 400 V_ADJUST
FLAG -656 512 0
FLAG -384 -32 0
FLAG -352 -144 V_SUPPLY_NEG
FLAG -576 448 V_SUPPLY_NEG
FLAG 48 672 0
FLAG -96 464 V_SUPPLY
FLAG -112 368 0
FLAG -64 544 V_GAIN_REF
FLAG -288 384 V_CTRL_BUFFERED
FLAG -304 496 0
SYMBOL PowerProducts\\LT1083 160 112 R0
WINDOW 0 110 -67 Bottom 2
WINDOW 3 44 110 Left 2
SYMATTR InstName U1
SYMBOL res 992 96 R90
WINDOW 0 0 56 VBottom 2
WINDOW 3 32 56 VTop 2
SYMATTR InstName R1
SYMATTR Value 10
SYMBOL cap 0 128 M0
SYMATTR InstName C1
SYMATTR Value 10n
SYMBOL cap -80 128 M0
SYMATTR InstName C2
SYMATTR Value 100n
SYMBOL cap -176 128 M0
SYMATTR InstName C3
SYMATTR Value 1µ
SYMBOL cap -256 128 M0
SYMATTR InstName C4
SYMATTR Value 4.7µ
SYMBOL cap -336 128 M0
SYMATTR InstName C5
SYMATTR Value 10µ
SYMBOL voltage -656 -144 M0
SYMATTR InstName V2
SYMATTR Value 30
SYMBOL cap 304 128 R0
SYMATTR InstName C6
SYMATTR Value 100n
SYMBOL cap 400 128 R0
SYMATTR InstName C7
SYMATTR Value 1µ
SYMBOL cap 480 128 R0
SYMATTR InstName C8
SYMATTR Value 4.7µ
SYMBOL cap 560 128 R0
SYMATTR InstName C9
SYMATTR Value 10µ
SYMBOL cap 640 128 R0
SYMATTR InstName C10
SYMATTR Value 22µ
SYMBOL diode 192 -80 R90
WINDOW 0 0 32 VBottom 2
WINDOW 3 32 32 VTop 2
SYMATTR InstName D1
SYMATTR Value 1N4148
SYMBOL OpAmps\\OP07 -592 320 R0
WINDOW 0 -24 4 Left 2
SYMATTR InstName U2
SYMBOL cap 144 432 R0
SYMATTR InstName C11
SYMATTR Value 10µ
SYMBOL voltage -656 400 M0
WINDOW 123 0 0 Left 0
WINDOW 39 0 0 Left 0
SYMATTR InstName V_CTRL
SYMATTR Value 0.512
SYMBOL voltage -384 -144 M0
SYMATTR InstName V1
SYMATTR Value -30
SYMBOL OpAmps\\OP07 -112 464 M180
SYMATTR InstName U3
SYMBOL res 32 416 R0
SYMATTR InstName R2
SYMATTR Value 130k
SYMBOL res 32 560 R0
SYMATTR InstName R3
SYMATTR Value 10k
SYMBOL cap -384 400 R0
SYMATTR InstName C12
SYMATTR Value 10n
SYMBOL cap -320 400 R0
SYMATTR InstName C13
SYMATTR Value 100n
SYMBOL cap -240 400 R0
SYMATTR InstName C14
SYMATTR Value 1µ
TEXT 672 -160 Left 2 !.tran 0 3 0 0.01
TEXT 352 392 Left 2 ;V_REG_OUT = (OP_GAIN(V_CTRL) + 1.24)\nV_REG_OUT = (3(V_CTRL)+1.24)
