Version 4
SHEET 1 2424 1636
WIRE 992 288 976 288
WIRE 1152 288 1072 288
WIRE 1232 288 1152 288
WIRE 1408 288 1312 288
WIRE 1536 288 1408 288
WIRE 1584 288 1536 288
WIRE 1680 288 1664 288
WIRE 976 304 976 288
WIRE 1680 304 1680 288
WIRE 1152 320 1152 288
WIRE 1536 352 1536 288
WIRE 1936 352 1536 352
WIRE 1600 432 1488 432
WIRE 1616 432 1600 432
WIRE 1936 432 1936 352
WIRE 1152 448 1152 400
WIRE 1184 448 1152 448
WIRE 1408 448 1408 288
WIRE 1408 448 1376 448
WIRE 1408 496 1376 496
WIRE 1408 512 1408 496
WIRE 1488 544 1488 432
WIRE 1520 544 1488 544
WIRE 1600 560 1600 432
WIRE 1600 560 1584 560
WIRE 1520 576 1408 576
WIRE 1936 592 1936 512
WIRE 1056 624 1040 624
WIRE 1168 624 1056 624
WIRE 1184 624 1168 624
WIRE 1600 624 1600 560
WIRE 1664 624 1600 624
WIRE 1168 640 1168 624
WIRE 1872 640 1728 640
WIRE 1600 656 1536 656
WIRE 1664 656 1600 656
WIRE 1600 688 1600 656
WIRE 1056 784 1056 624
WIRE 1408 784 1408 576
WIRE 1408 784 1056 784
WIRE 1600 784 1600 768
WIRE 1936 784 1936 688
FLAG 1408 512 0
FLAG 1152 288 V_SRC
FLAG 1184 496 V_SRC
FLAG 1168 720 0
FLAG 1680 304 0
FLAG 1552 528 V_SRC
FLAG 1552 592 0
FLAG 1536 656 V_SET
FLAG 1616 432 V_SENSE_BUFF
FLAG 1696 672 V_SRC
FLAG 1600 784 0
FLAG 976 304 0
FLAG 1040 624 V_SENSE_RAW
FLAG 1936 784 0
FLAG 640 544 0
FLAG 640 464 V_NegSup
FLAG 1696 608 0
SYMBOL OpAmps\\LT6106 1280 512 M0
SYMATTR InstName U2
SYMBOL res 1328 272 R90
WINDOW 0 0 56 VBottom 2
WINDOW 3 32 56 VTop 2
SYMATTR InstName R7
SYMATTR Value 0.02
SYMBOL voltage 1088 288 M270
WINDOW 0 32 56 VTop 2
WINDOW 3 -32 56 VBottom 2
SYMATTR InstName V3
SYMATTR Value 30
SYMBOL res 1184 624 M0
SYMATTR InstName R8
SYMATTR Value 10k
SYMBOL res 1680 272 R90
WINDOW 0 0 56 VBottom 2
WINDOW 3 32 56 VTop 2
SYMATTR InstName R9
SYMATTR Value 7.5
SYMBOL res 1168 304 M0
SYMATTR InstName R1
SYMATTR Value 499
SYMBOL OpAmps\\OP07 1552 496 R0
WINDOW 0 -22 -104 Left 2
WINDOW 3 -21 -78 Left 2
SYMATTR InstName U1
SYMBOL OpAmps\\OP07 1696 704 M180
WINDOW 3 18 9 Left 2
SYMATTR InstName U3
SYMBOL voltage 1600 672 M0
SYMATTR InstName V1
SYMATTR Value 0
SYMBOL npn 1872 592 R0
SYMATTR InstName Q1
SYMBOL res 1920 416 R0
SYMATTR InstName R2
SYMATTR Value 10
SYMBOL voltage 640 448 R0
SYMATTR InstName V2
SYMATTR Value -30
TEXT 208 264 Left 2 !.tran 0 1 0 0.01
TEXT 1680 880 Left 2 ;OPAMP must be rail to rail or comparators
